test/TEST190523/v_h8.csv
Bus, BasekV, Node1, Magnitude1, Angle1, pu1, Node2, Magnitude2, Angle2, pu2, Node3, Magnitude3, Angle3, pu3
"SOURCEBUS", 69, 1,    41817.8,   -0.2,    1.0497, 2,    41816.5, -120.2,    1.0497, 3,    41784.4,  119.8,    1.0489
"BUSMVMAI1", 12.8, 1,    7753.72,  -30.5,    1.0492, 2,    7758.16, -150.6,    1.0498, 3,    7741.73,   89.2,    1.0476
"BUSMVMAI136", 12.505, 1,    7753.72,  -30.5,    1.0739, 2,    7758.11, -150.6,    1.0745, 3,    7741.66,   89.2,    1.0723
"BUSMVMAI3", 12.505, 1,    7756.09,  -31.0,    1.0743, 2,    7718.94, -150.7,    1.0691, 3,    7683.31,   88.4,    1.0642
"BUSMVMAI2", 12.505, 1,     7756.1,  -31.0,    1.0743, 2,    7718.83, -150.7,    1.0691, 3,    7683.15,   88.4,    1.0641
"BUSMVMAI4", 12.505, 1,    7756.18,  -31.0,    1.0743, 2,    7717.72, -150.7,    1.0689, 3,    7681.53,   88.3,    1.0639
"BUSMVMAI46", 12.505, 1,    7756.09,  -31.0,    1.0743, 2,    7718.99, -150.7,    1.0691, 3,    7683.38,   88.4,    1.0642
"BUSMVMAI5", 12.505, 1,    7755.99,  -31.0,    1.0742, 2,    7716.45, -150.8,    1.0688, 3,    7679.76,   88.3,    1.0637
"BUSMVMAI862", 12.505, 1,    7756.17,  -31.0,    1.0743, 0, 0, 0, 0, 0, 0, 0, 0
"BUSMVMAI6", 12.505, 1,    7755.95,  -31.0,    1.0742, 2,    7716.22, -150.8,    1.0687, 3,    7679.45,   88.3,    1.0636
"BUSMVMAI859", 12.505, 3,    7679.73,   88.3,    1.0637, 0, 0, 0, 0, 0, 0, 0, 0
"BUSMVMAI860", 12.505, 3,    7679.76,   88.3,    1.0637, 0, 0, 0, 0, 0, 0, 0, 0
"BUSMVMAI7", 12.505, 1,    7755.49,  -31.0,    1.0742, 2,    7715.25, -150.8,    1.0686, 3,    7678.09,   88.3,    1.0634
"BUSMVMAI8", 12.505, 1,    7755.94,  -31.0,    1.0742, 2,    7713.67, -150.8,    1.0684, 3,    7676.94,   88.3,    1.0633
"BUSMVMAI9", 12.505, 1,    7755.49,  -31.0,    1.0742, 2,    7715.25, -150.8,    1.0686, 3,    7678.09,   88.3,    1.0634
"BUSMVMAI10", 12.505, 1,    7755.07,  -31.0,    1.0741, 2,    7715.25, -150.8,    1.0686, 3,    7677.71,   88.3,    1.0634
"BUSMVMAI56", 12.505, 1,    7755.28,  -31.0,    1.0741, 2,    7715.25, -150.8,    1.0686, 3,     7677.9,   88.3,    1.0634
"BUSMVMAI861", 12.505, 3,    7679.64,   88.3,    1.0637, 0, 0, 0, 0, 0, 0, 0, 0
"BUSMVMAI12", 12.505, 1,    7756.31,  -31.0,    1.0743, 2,    7712.38, -150.8,    1.0682, 3,       7676,   88.3,    1.0632
"BUSMVMAI51", 12.505, 1,    7755.94,  -31.0,    1.0742, 2,    7713.67, -150.8,    1.0684, 3,    7676.94,   88.3,    1.0633
"BUSMVMAI2171", 12.505, 1,    7755.94,  -31.0,    1.0742, 0, 0, 0, 0, 0, 0, 0, 0
"BUSMVMAI863", 12.505, 3,    7679.58,   88.3,    1.0637, 0, 0, 0, 0, 0, 0, 0, 0
"BUSMVMAI2165", 12.505, 3,    7678.09,   88.3,    1.0634, 0, 0, 0, 0, 0, 0, 0, 0
"BUSMVMAI694", 12.505, 1,    7755.49,  -31.0,    1.0742, 2,    7715.25, -150.8,    1.0686, 3,    7678.09,   88.3,    1.0634
"BUSMVMAI122", 12.505, 1,    7755.05,  -31.0,    1.0741, 2,    7715.25, -150.8,    1.0686, 3,    7677.69,   88.3,    1.0634
"BUSMVMAI11", 12.505, 1,     7756.3,  -31.0,    1.0743, 2,    7712.37, -150.8,    1.0682, 3,    7676.01,   88.3,    1.0632
"BUSMVMAI13", 12.505, 1,    7756.29,  -31.0,    1.0743, 2,    7712.35, -150.8,    1.0682, 3,    7676.02,   88.3,    1.0632
"BUSMVMAI18", 12.505, 1,    7756.45,  -31.0,    1.0743, 2,    7711.91, -150.8,    1.0681, 3,    7675.64,   88.3,    1.0631
"BUSMVMAI14", 12.505, 1,    7756.28,  -31.0,    1.0743, 2,     7712.3, -150.8,    1.0682, 3,    7676.06,   88.3,    1.0632
"BUSMVMAI15", 12.505, 1,    7756.26,  -31.0,    1.0743, 2,    7712.25, -150.8,    1.0682, 3,     7676.1,   88.3,    1.0632
"BUSMVMAI16", 12.505, 1,    7756.25,  -31.0,    1.0743, 2,    7712.26, -150.8,    1.0682, 3,    7676.11,   88.3,    1.0632
"BUSMVMAI2166", 12.505, 2,    7712.25, -150.8,    1.0682, 0, 0, 0, 0, 0, 0, 0, 0
"BUSMVMAI2172", 12.505, 1,    7756.16,  -31.0,    1.0743, 0, 0, 0, 0, 0, 0, 0, 0
"BUSMVMAI864", 12.505, 3,    7679.52,   88.3,    1.0636, 0, 0, 0, 0, 0, 0, 0, 0
"BUSMVMAI865", 12.505, 3,    7679.44,   88.3,    1.0636, 0, 0, 0, 0, 0, 0, 0, 0
"BUSMVMAI17", 12.505, 1,    7756.25,  -31.0,    1.0743, 2,    7712.26, -150.8,    1.0682, 3,    7676.11,   88.3,    1.0632
"BUSMVMAI695", 12.505, 1,    7756.25,  -31.0,    1.0743, 2,    7712.26, -150.8,    1.0682, 3,    7676.11,   88.3,    1.0632
"BUSMVMAI866", 12.505, 3,    7679.44,   88.3,    1.0636, 0, 0, 0, 0, 0, 0, 0, 0
"BUSMVMAI2176", 12.505, 3,    7679.44,   88.3,    1.0636, 0, 0, 0, 0, 0, 0, 0, 0
"BUSMVMAI2177", 12.505, 3,    7679.44,   88.3,    1.0636, 0, 0, 0, 0, 0, 0, 0, 0
"BUSMVMAI2178", 12.505, 3,    7679.39,   88.3,    1.0636, 0, 0, 0, 0, 0, 0, 0, 0
"BUSMVMAI19", 12.505, 1,    7756.72,  -31.0,    1.0743, 2,    7711.06, -150.8,     1.068, 3,    7674.99,   88.3,     1.063
"BUSMVMAI20", 12.505, 1,    7757.11,  -31.0,    1.0744, 2,    7709.87, -150.8,    1.0678, 3,    7674.06,   88.2,    1.0629
"BUSMVMAI53", 12.505, 1,    7756.72,  -31.0,    1.0743, 2,    7711.06, -150.8,     1.068, 3,    7674.99,   88.3,     1.063
"BUSMVMAI21", 12.505, 1,    7757.52,  -31.0,    1.0744, 2,    7708.61, -150.8,    1.0677, 3,     7673.1,   88.2,    1.0628
"BUSMVMAI22", 12.505, 1,    7757.99,  -31.0,    1.0745, 2,    7707.13, -150.8,    1.0675, 3,    7671.98,   88.2,    1.0626
"BUSMVMAI23", 12.505, 1,    7757.52,  -31.0,    1.0744, 2,    7708.61, -150.8,    1.0677, 3,     7673.1,   88.2,    1.0628
"BUSMVMAI25", 12.505, 1,    7758.49,  -31.0,    1.0746, 2,    7705.59, -150.8,    1.0673, 3,    7670.81,   88.2,    1.0624
"BUSMVMAI52", 12.505, 1,    7757.99,  -31.0,    1.0745, 2,    7707.13, -150.8,    1.0675, 3,    7671.98,   88.2,    1.0626
"BUSMVMAI54", 12.505, 1,    7757.99,  -31.0,    1.0745, 2,    7707.13, -150.8,    1.0675, 3,    7671.98,   88.2,    1.0626
"BUSMVMAI55", 12.505, 1,    7757.99,  -31.0,    1.0745, 2,    7707.13, -150.8,    1.0675, 3,    7671.98,   88.2,    1.0626
"BUSMVMAI696", 12.505, 1,    7757.52,  -31.0,    1.0744, 2,    7708.61, -150.8,    1.0677, 3,    7673.09,   88.2,    1.0628
"BUSMVMAI24", 12.505, 1,    7758.54,  -31.0,    1.0746, 2,    7705.44, -150.8,    1.0672, 3,     7670.7,   88.2,    1.0624
"BUSMVMAI26", 12.505, 1,    7759.05,  -31.0,    1.0747, 2,    7703.91, -150.8,     1.067, 3,    7669.54,   88.1,    1.0623
"BUSMVMAI49", 12.505, 1,    7758.49,  -31.0,    1.0746, 2,    7705.59, -150.8,    1.0673, 3,    7670.81,   88.2,    1.0624
"BUSMVMAI50", 12.505, 1,    7758.49,  -31.0,    1.0746, 2,    7705.59, -150.8,    1.0673, 3,    7670.81,   88.2,    1.0624
"BUSMVMAI27", 12.505, 1,    7759.03,  -31.0,    1.0747, 2,    7703.92, -150.8,     1.067, 3,    7669.53,   88.1,    1.0623
"BUSMVMAI28", 12.505, 1,    7759.45,  -31.0,    1.0747, 2,    7702.72, -150.8,    1.0669, 3,    7668.67,   88.1,    1.0621
"BUSMVMAI29", 12.505, 1,       7759,  -31.0,    1.0747, 2,    7703.93, -150.8,     1.067, 3,    7669.52,   88.1,    1.0623
"BUSMVMAI31", 12.505, 1,    7759.91,  -31.0,    1.0748, 2,    7701.33, -150.8,    1.0667, 3,    7667.66,   88.1,     1.062
"BUSMVMAI30", 12.505, 1,    7758.97,  -31.0,    1.0746, 2,    7703.95, -150.8,     1.067, 3,    7669.51,   88.1,    1.0623
"BUSMVMAI34", 12.505, 1,    7758.94,  -31.0,    1.0746, 2,    7703.97, -150.8,     1.067, 3,    7669.49,   88.2,    1.0623
"BUSMVMAI867", 12.505, 1,    7759.85,  -31.0,    1.0748, 0, 0, 0, 0, 0, 0, 0, 0
"BUSMVMAI43", 12.505, 1,    7759.92,  -31.0,    1.0748, 2,     7701.3, -150.8,    1.0667, 3,    7667.63,   88.1,     1.062
"BUSMVMAI871", 12.505, 2,    7701.33, -150.8,    1.0667, 0, 0, 0, 0, 0, 0, 0, 0
"BUSMVMAI33", 12.505, 1,    7760.06,  -31.0,    1.0748, 2,     7700.9, -150.8,    1.0666, 3,    7667.35,   88.1,     1.062
"BUSMVMAI32", 12.505, 1,    7760.49,  -31.0,    1.0749, 2,     7699.7, -150.8,    1.0664, 3,    7666.52,   88.1,    1.0618
"BUSMVMAI37", 12.505, 1,    7761.04,  -31.0,    1.0749, 2,    7698.05, -150.8,    1.0662, 3,     7665.4,   88.1,    1.0617
"BUSMVMAI44", 12.505, 1,    7759.93,  -31.0,    1.0748, 2,    7701.27, -150.8,    1.0667, 3,    7667.61,   88.1,     1.062
"BUSMVMAI35", 12.505, 1,    7758.94,  -31.0,    1.0746, 2,    7703.97, -150.8,     1.067, 3,    7669.49,   88.2,    1.0623
"BUSMVMAI36", 12.505, 1,    7758.95,  -31.0,    1.0746, 2,    7703.97, -150.8,     1.067, 3,    7669.48,   88.2,    1.0623
"BUSMVMAI869", 12.505, 1,    7759.85,  -31.0,    1.0748, 0, 0, 0, 0, 0, 0, 0, 0
"BUSMVMAI38", 12.505, 1,    7761.49,  -31.0,     1.075, 2,    7696.75, -150.8,     1.066, 3,    7664.52,   88.1,    1.0616
"BUSMVMAI2181", 12.505, 1,    7761.03,  -31.0,    1.0749, 0, 0, 0, 0, 0, 0, 0, 0
"BUSMVMAI868", 12.505, 1,    7759.74,  -31.0,    1.0748, 0, 0, 0, 0, 0, 0, 0, 0
"BUSMVMAI870", 12.505, 1,    7759.63,  -31.0,    1.0747, 0, 0, 0, 0, 0, 0, 0, 0
"BUSMVMAI39", 12.505, 1,    7761.51,  -31.0,     1.075, 2,    7696.74, -150.8,     1.066, 3,    7664.47,   88.1,    1.0616
"BUSMVMAI40", 12.505, 1,    7761.89,  -31.0,    1.0751, 2,    7695.48, -150.8,    1.0659, 3,    7663.68,   88.0,    1.0615
"BUSMVMAI697", 12.505, 1,    7761.54,  -31.0,     1.075, 2,    7696.75, -150.8,     1.066, 3,    7664.34,   88.1,    1.0615
"BUSMVMAI41", 12.505, 1,    7762.36,  -31.0,    1.0751, 2,    7694.03, -150.8,    1.0657, 3,     7662.7,   88.0,    1.0613
"BUSMVMAI42", 12.505, 1,    7762.38,  -31.0,    1.0751, 2,    7694.02, -150.8,    1.0657, 3,    7662.68,   88.0,    1.0613
"BUSMVMAI48", 12.505, 1,    7762.74,  -31.1,    1.0752, 2,    7692.83, -150.8,    1.0655, 3,     7661.9,   88.0,    1.0612
"BUSMVMAI303", 12.505, 1,    7762.55,  -31.1,    1.0751, 2,    7693.43, -150.8,    1.0656, 3,     7662.3,   88.0,    1.0613
"BUSMVMAI45", 12.505, 1,    7762.39,  -31.0,    1.0751, 2,    7694.02, -150.8,    1.0657, 3,    7662.66,   88.0,    1.0613
"BUSMVMAI701", 12.505, 1,    7762.39,  -31.0,    1.0751, 2,    7694.02, -150.8,    1.0657, 3,    7662.65,   88.0,    1.0613
"BUSMVMAI47", 12.505, 1,    7756.06,  -31.0,    1.0742, 2,    7719.47, -150.7,    1.0692, 3,     7684.1,   88.4,    1.0643
"BUSMVMAI179", 12.505, 1,    7756.08,  -31.0,    1.0742, 2,    7719.23, -150.7,    1.0691, 3,    7683.74,   88.4,    1.0642
"BUSMVMAI160", 12.505, 1,    7755.98,  -31.0,    1.0742, 2,    7720.65, -150.7,    1.0693, 3,    7685.82,   88.4,    1.0645
"BUSMVMAI1103", 12.505, 1,    7762.66,  -31.1,    1.0752, 0, 0, 0, 0, 0, 0, 0, 0
"BUSMVMAI259", 12.505, 1,    7762.98,  -31.1,    1.0752, 2,    7692.18, -150.8,    1.0654, 3,    7661.55,   88.0,    1.0612
"BUSMVMAI304", 12.505, 1,    7762.74,  -31.1,    1.0752, 2,    7692.83, -150.8,    1.0655, 3,     7661.9,   88.0,    1.0612
"BUSMVMAI702", 12.505, 1,    7758.49,  -31.0,    1.0746, 2,    7705.59, -150.8,    1.0673, 3,    7670.81,   88.2,    1.0624
"BUSMVMAI58", 12.505, 1,    7754.78,  -31.0,    1.0741, 2,    7715.25, -150.8,    1.0686, 3,    7677.44,   88.3,    1.0634
"BUSMVMAI57", 12.505, 1,    7753.78,  -31.0,    1.0739, 2,    7715.24, -150.8,    1.0686, 3,    7676.53,   88.3,    1.0632
"BUSMVMAI60", 12.505, 1,    7753.37,  -31.0,    1.0739, 2,    7715.24, -150.8,    1.0686, 3,    7676.15,   88.3,    1.0632
"BUSMVMAI703", 12.505, 1,    7753.79,  -31.0,    1.0739, 2,    7715.24, -150.8,    1.0686, 3,    7676.52,   88.3,    1.0632
"BUSMVMAI123", 12.505, 1,    7755.03,  -31.0,    1.0741, 2,    7715.25, -150.8,    1.0686, 3,    7677.67,   88.3,    1.0634
"BUSMVMAI59", 12.505, 1,    7752.76,  -31.0,    1.0738, 2,    7715.27, -150.8,    1.0686, 3,    7675.76,   88.3,    1.0631
"BUSMVMAI61", 12.505, 1,    7751.75,  -31.0,    1.0736, 2,    7715.32, -150.8,    1.0686, 3,     7675.1,   88.3,     1.063
"BUSMVMAI63", 12.505, 1,     7753.4,  -31.0,    1.0739, 2,    7715.21, -150.8,    1.0686, 3,    7676.09,   88.3,    1.0632
"BUSMVMAI874", 12.505, 3,    7676.15,   88.3,    1.0632, 0, 0, 0, 0, 0, 0, 0, 0
"BUSMVMAI62", 12.505, 1,    7750.77,  -31.0,    1.0735, 2,    7715.31, -150.8,    1.0686, 3,    7674.44,   88.3,    1.0629
"BUSMVMAI64", 12.505, 1,    7749.67,  -31.0,    1.0734, 2,    7715.36, -150.8,    1.0686, 3,    7673.98,   88.3,    1.0629
"BUSMVMAI942", 12.505, 3,    7674.44,   88.3,    1.0629, 0, 0, 0, 0, 0, 0, 0, 0
"BUSMVMAI873", 12.505, 3,    7674.43,   88.3,    1.0629, 0, 0, 0, 0, 0, 0, 0, 0
"BUSMVMAI872", 12.505, 3,    7674.13,   88.3,    1.0629, 0, 0, 0, 0, 0, 0, 0, 0
"BUSMVMAI880", 12.505, 3,    7674.12,   88.3,    1.0629, 0, 0, 0, 0, 0, 0, 0, 0
"BUSMVMAI945", 12.505, 3,    7676.08,   88.3,    1.0632, 0, 0, 0, 0, 0, 0, 0, 0
"BUSMVMAI65", 12.505, 1,    7748.49,  -31.1,    1.0732, 2,    7715.39, -150.8,    1.0686, 3,    7673.46,   88.3,    1.0628
"BUSMVMAI66", 12.505, 1,    7747.31,  -31.1,     1.073, 2,    7715.42, -150.8,    1.0686, 3,    7672.95,   88.3,    1.0627
"BUSMVMAI67", 12.505, 1,    7746.03,  -31.1,    1.0729, 2,    7715.45, -150.8,    1.0686, 3,    7672.39,   88.3,    1.0627
"BUSMVMAI878", 12.505, 1,    7745.96,  -31.1,    1.0728, 0, 0, 0, 0, 0, 0, 0, 0
"BUSMVMAI68", 12.505, 1,    7745.09,  -31.1,    1.0727, 2,    7715.45, -150.8,    1.0686, 3,    7671.97,   88.3,    1.0626
"BUSMVMAI706", 12.505, 1,    7746.03,  -31.1,    1.0729, 2,    7715.46, -150.8,    1.0686, 3,    7672.38,   88.3,    1.0627
"BUSMVMAI876", 12.505, 3,    7676.07,   88.3,    1.0632, 0, 0, 0, 0, 0, 0, 0, 0
"BUSMVMAI875", 12.505, 3,    7675.85,   88.3,    1.0631, 0, 0, 0, 0, 0, 0, 0, 0
"BUSMVMAI877", 12.505, 3,    7675.77,   88.3,    1.0631, 0, 0, 0, 0, 0, 0, 0, 0
"BUSMVMAI883", 12.505, 3,     7675.6,   88.3,    1.0631, 0, 0, 0, 0, 0, 0, 0, 0
"BUSMVMAI884", 12.505, 3,    7675.76,   88.3,    1.0631, 0, 0, 0, 0, 0, 0, 0, 0
"BUSMVMAI886", 12.505, 3,    7675.76,   88.3,    1.0631, 0, 0, 0, 0, 0, 0, 0, 0
"BUSMVMAI885", 12.505, 1,    7745.85,  -31.1,    1.0728, 0, 0, 0, 0, 0, 0, 0, 0
"BUSMVMAI879", 12.505, 3,    7673.69,   88.3,    1.0628, 0, 0, 0, 0, 0, 0, 0, 0
"BUSMVMAI881", 12.505, 3,    7673.67,   88.3,    1.0628, 0, 0, 0, 0, 0, 0, 0, 0
"BUSMVMAI888", 12.505, 3,    7673.64,   88.3,    1.0628, 0, 0, 0, 0, 0, 0, 0, 0
"BUSMVMAI882", 12.505, 3,    7673.65,   88.3,    1.0628, 0, 0, 0, 0, 0, 0, 0, 0
"BUSMVMAI944", 12.505, 3,    7673.65,   88.3,    1.0628, 0, 0, 0, 0, 0, 0, 0, 0
"BUSMVMAI889", 12.505, 3,    7675.44,   88.3,    1.0631, 0, 0, 0, 0, 0, 0, 0, 0
"BUSMVMAI2183", 12.505, 3,    7675.75,   88.3,    1.0631, 0, 0, 0, 0, 0, 0, 0, 0
"BUSMVMAI2184", 12.505, 3,    7675.76,   88.3,    1.0631, 0, 0, 0, 0, 0, 0, 0, 0
"BUSMVMAI71", 12.505, 1,     7744.2,  -31.1,    1.0726, 2,    7715.41, -150.8,    1.0686, 3,    7671.57,   88.3,    1.0625
"BUSMVMAI2182", 12.505, 1,    7745.84,  -31.1,    1.0728, 0, 0, 0, 0, 0, 0, 0, 0
"BUSMVMAI2185", 12.505, 1,    7745.85,  -31.1,    1.0728, 0, 0, 0, 0, 0, 0, 0, 0
"BUSMVMAI2186", 12.505, 1,    7745.76,  -31.1,    1.0728, 0, 0, 0, 0, 0, 0, 0, 0
"BUSMVMAI887", 12.505, 3,    7675.74,   88.3,    1.0631, 0, 0, 0, 0, 0, 0, 0, 0
"BUSMVMAI892", 12.505, 3,    7675.72,   88.3,    1.0631, 0, 0, 0, 0, 0, 0, 0, 0
"BUSMVMAI897", 12.505, 3,    7673.57,   88.3,    1.0628, 0, 0, 0, 0, 0, 0, 0, 0
"BUSMVMAI890", 12.505, 3,     7675.3,   88.3,    1.0631, 0, 0, 0, 0, 0, 0, 0, 0
"BUSMVMAI891", 12.505, 3,    7675.22,   88.3,     1.063, 0, 0, 0, 0, 0, 0, 0, 0
"BUSMVMAI896", 12.505, 3,    7675.19,   88.3,     1.063, 0, 0, 0, 0, 0, 0, 0, 0
"BUSMVMAI893", 12.505, 3,     7675.7,   88.3,    1.0631, 0, 0, 0, 0, 0, 0, 0, 0
"BUSMVMAI894", 12.505, 3,    7675.69,   88.3,    1.0631, 0, 0, 0, 0, 0, 0, 0, 0
"BUSMVMAI895", 12.505, 3,    7675.68,   88.3,    1.0631, 0, 0, 0, 0, 0, 0, 0, 0
"BUSMVMAI898", 12.505, 3,    7675.68,   88.3,    1.0631, 0, 0, 0, 0, 0, 0, 0, 0
"BUSMVMAI70", 12.505, 1,    7746.04,  -31.1,    1.0729, 2,    7715.46, -150.8,    1.0686, 3,    7672.35,   88.3,    1.0627
"BUSMVMAI69", 12.505, 1,    7746.04,  -31.1,    1.0729, 2,    7715.46, -150.8,    1.0686, 3,    7672.35,   88.3,    1.0627
"BUSMVMAI708", 12.505, 1,    7746.03,  -31.1,    1.0729, 2,    7715.46, -150.8,    1.0686, 3,    7672.36,   88.3,    1.0627
"BUSMVMAI72", 12.505, 1,    7743.03,  -31.1,    1.0724, 2,    7715.36, -150.8,    1.0686, 3,    7671.05,   88.3,    1.0625
"BUSMVMAI73", 12.505, 1,    7741.91,  -31.1,    1.0723, 2,    7715.33, -150.8,    1.0686, 3,    7670.63,   88.3,    1.0624
"BUSMVMAI134", 12.505, 1,    7743.03,  -31.1,    1.0724, 2,    7715.36, -150.8,    1.0686, 3,    7671.05,   88.3,    1.0625
"BUSMVMAI900", 12.505, 3,    7673.51,   88.3,    1.0628, 0, 0, 0, 0, 0, 0, 0, 0
"BUSMVMAI904", 12.505, 3,    7675.67,   88.3,    1.0631, 0, 0, 0, 0, 0, 0, 0, 0
"BUSMVMAI75", 12.505, 1,    7741.36,  -31.1,    1.0722, 2,    7715.35, -150.8,    1.0686, 3,    7670.41,   88.3,    1.0624
"BUSMVMAI718", 12.505, 1,    7741.91,  -31.1,    1.0723, 2,    7715.33, -150.8,    1.0686, 3,    7670.63,   88.3,    1.0624
"BUSMVMAI899", 12.505, 3,     7673.5,   88.3,    1.0628, 0, 0, 0, 0, 0, 0, 0, 0
"BUSMVMAI902", 12.505, 3,    7673.47,   88.3,    1.0628, 0, 0, 0, 0, 0, 0, 0, 0
"BUSMVMAI901", 12.505, 3,    7673.45,   88.3,    1.0628, 0, 0, 0, 0, 0, 0, 0, 0
"BUSMVMAI903", 12.505, 3,     7673.4,   88.3,    1.0628, 0, 0, 0, 0, 0, 0, 0, 0
"BUSMVMAI905", 12.505, 3,    7673.35,   88.3,    1.0628, 0, 0, 0, 0, 0, 0, 0, 0
"BUSMVMAI907", 12.505, 3,     7673.4,   88.3,    1.0628, 0, 0, 0, 0, 0, 0, 0, 0
"BUSMVMAI906", 12.505, 3,    7673.34,   88.3,    1.0628, 0, 0, 0, 0, 0, 0, 0, 0
"BUSMVMAI946", 12.505, 3,    7673.34,   88.3,    1.0628, 0, 0, 0, 0, 0, 0, 0, 0
"BUSMVMAI74", 12.505, 1,    7741.36,  -31.1,    1.0722, 2,    7715.35, -150.8,    1.0686, 3,    7670.41,   88.3,    1.0624
"BUSMVMAI76", 12.505, 1,    7741.24,  -31.1,    1.0722, 2,    7715.43, -150.8,    1.0686, 3,    7670.35,   88.3,    1.0624
"BUSMVMAI77", 12.505, 1,    7741.05,  -31.1,    1.0722, 2,    7715.31, -150.8,    1.0686, 3,    7670.28,   88.3,    1.0624
"BUSMVMAI79", 12.505, 1,    7741.23,  -31.1,    1.0722, 2,    7715.44, -150.8,    1.0686, 3,    7670.35,   88.3,    1.0624
"BUSMVMAI81", 12.505, 1,    7741.02,  -31.1,    1.0722, 2,    7715.21, -150.8,    1.0686, 3,    7670.32,   88.3,    1.0624
"BUSMVMAI91", 12.505, 1,    7740.27,  -31.1,    1.0721, 2,     7715.3, -150.8,    1.0686, 3,    7669.93,   88.3,    1.0623
"BUSMVMAI78", 12.505, 1,    7741.03,  -31.1,    1.0722, 2,    7715.58, -150.8,    1.0686, 3,    7670.25,   88.3,    1.0624
"BUSMVMAI80", 12.505, 1,    7740.83,  -31.1,    1.0721, 2,    7715.72, -150.8,    1.0687, 3,    7670.15,   88.3,    1.0623
"BUSMVMAI908", 12.505, 1,    7740.71,  -31.1,    1.0721, 0, 0, 0, 0, 0, 0, 0, 0
"BUSMVMAI89", 12.505, 1,    7740.79,  -31.1,    1.0721, 2,    7715.75, -150.8,    1.0687, 3,     7670.1,   88.3,    1.0623
"BUSMVMAI949", 12.505, 3,     7673.4,   88.3,    1.0628, 0, 0, 0, 0, 0, 0, 0, 0
"BUSMVMAI82", 12.505, 1,    7741.01,  -31.1,    1.0722, 2,    7715.13, -150.8,    1.0686, 3,    7670.35,   88.3,    1.0624
"BUSMVMAI83", 12.505, 1,    7741.02,  -31.1,    1.0722, 2,    7715.13, -150.8,    1.0686, 3,    7670.33,   88.3,    1.0624
"BUSMVMAI86", 12.505, 1,    7741.03,  -31.1,    1.0722, 2,    7715.12, -150.8,    1.0686, 3,    7670.31,   88.3,    1.0624
"BUSMVMAI85", 12.505, 1,    7741.89,  -31.1,    1.0723, 2,    7715.26, -150.8,    1.0686, 3,    7670.63,   88.3,    1.0624
"BUSMVMAI84", 12.505, 1,    7741.84,  -31.1,    1.0723, 2,    7715.19, -150.8,    1.0686, 3,    7670.66,   88.3,    1.0624
"BUSMVMAI93", 12.505, 1,    7741.81,  -31.1,    1.0723, 2,    7715.16, -150.8,    1.0686, 3,    7670.67,   88.3,    1.0624
"BUSMVMAI2198", 12.505, 2,    7715.19, -150.8,    1.0686, 0, 0, 0, 0, 0, 0, 0, 0
"BUSMVMAI709", 12.505, 1,     7741.9,  -31.1,    1.0723, 2,    7715.33, -150.8,    1.0686, 3,    7670.63,   88.3,    1.0624
"BUSMVMAI88", 12.505, 1,    7741.04,  -31.1,    1.0722, 2,    7715.12, -150.8,    1.0686, 3,    7670.29,   88.3,    1.0624
"BUSMVMAI87", 12.505, 1,    7741.06,  -31.1,    1.0722, 2,    7715.11, -150.8,    1.0686, 3,    7670.27,   88.3,    1.0624
"BUSMVMAI99", 12.505, 1,    7741.06,  -31.1,    1.0722, 2,    7715.11, -150.8,    1.0686, 3,    7670.27,   88.3,    1.0624
"BUSMVMAI722", 12.505, 1,    7741.06,  -31.1,    1.0722, 2,    7715.11, -150.8,    1.0686, 3,    7670.26,   88.3,    1.0624
"BUSMVMAI909", 12.505, 1,    7740.57,  -31.1,    1.0721, 0, 0, 0, 0, 0, 0, 0, 0
"BUSMVMAI90", 12.505, 1,    7740.78,  -31.1,    1.0721, 2,    7715.76, -150.8,    1.0687, 3,    7670.07,   88.3,    1.0623
"BUSMVMAI102", 12.505, 1,    7740.78,  -31.1,    1.0721, 2,    7715.76, -150.8,    1.0687, 3,    7670.03,   88.3,    1.0623
"BUSMVMAI92", 12.505, 1,    7739.59,  -31.1,     1.072, 2,    7715.29, -150.8,    1.0686, 3,    7669.62,   88.3,    1.0623
"BUSMVMAI132", 12.505, 1,    7740.27,  -31.1,    1.0721, 2,     7715.3, -150.8,    1.0686, 3,    7669.93,   88.3,    1.0623
"BUSMVMAI98", 12.505, 1,    7739.59,  -31.1,     1.072, 2,    7715.29, -150.8,    1.0686, 3,    7669.62,   88.3,    1.0623
"BUSMVMAI100", 12.505, 1,    7738.74,  -31.1,    1.0718, 2,    7715.36, -150.8,    1.0686, 3,     7669.2,   88.3,    1.0622
"BUSMVMAI723", 12.505, 1,    7739.59,  -31.1,     1.072, 2,    7715.29, -150.8,    1.0686, 3,    7669.62,   88.3,    1.0623
"BUSMVMAI96", 12.505, 1,    7741.79,  -31.1,    1.0723, 2,    7715.12, -150.8,    1.0686, 3,    7670.68,   88.3,    1.0624
"BUSMVMAI916", 12.505, 1,    7741.81,  -31.1,    1.0723, 0, 0, 0, 0, 0, 0, 0, 0
"BUSMVMAI95", 12.505, 1,     7739.6,  -31.1,     1.072, 2,    7715.23, -150.8,    1.0686, 3,    7669.63,   88.3,    1.0623
"BUSMVMAI94", 12.505, 1,    7739.57,  -31.1,     1.072, 2,    7715.17, -150.8,    1.0686, 3,    7669.65,   88.3,    1.0623
"BUSMVMAI112", 12.505, 1,    7739.58,  -31.1,     1.072, 2,    7715.17, -150.8,    1.0686, 3,    7669.64,   88.3,    1.0623
"BUSMVMAI126", 12.505, 1,     7739.6,  -31.1,     1.072, 2,    7715.23, -150.8,    1.0686, 3,    7669.63,   88.3,    1.0623
"BUSMVMAI97", 12.505, 1,    7741.76,  -31.1,    1.0723, 2,    7715.07, -150.8,    1.0686, 3,     7670.7,   88.3,    1.0624
"BUSMVMAI711", 12.505, 1,    7741.79,  -31.1,    1.0723, 2,    7715.12, -150.8,    1.0686, 3,    7670.68,   88.3,    1.0624
"BUSMVMAI915", 12.505, 1,    7741.75,  -31.1,    1.0723, 0, 0, 0, 0, 0, 0, 0, 0
...
"BUSLVMAI1", 0.20785, 1,    127.598,   88.3,    1.0633, 2,    127.614,  -91.7,    1.0634, 0, 0, 0, 0
"BUSLVMAI2", 0.20785, 1,    127.715,   88.4,    1.0643, 2,    127.729,  -91.6,    1.0644, 0, 0, 0, 0
"BUSLVMAI3", 0.20785, 1,    127.572,   88.3,    1.0631, 2,    127.588,  -91.7,    1.0632, 0, 0, 0, 0
"BUSLVMAI4", 0.20785, 1,    128.276,  -31.3,     1.069, 2,    128.437,  148.7,    1.0703, 0, 0, 0, 0
"BUSLVMAI5", 0.20785, 1,    127.527, -150.9,    1.0627, 2,    127.627,   29.1,    1.0636, 0, 0, 0, 0
"BUSLVMAI6", 0.20785, 1,    127.431,   88.2,    1.0619, 2,    127.447,  -91.8,    1.0621, 0, 0, 0, 0
"BUSLVMAI7", 0.20785, 1,    127.603,   88.3,    1.0634, 2,    127.617,  -91.7,    1.0635, 0, 0, 0, 0
"BUSLVMAI8", 0.20785, 1,    126.941,   88.1,    1.0578, 2,    126.959,  -91.9,     1.058, 0, 0, 0, 0
"BUSLVMAI9", 0.20785, 1,    126.991,   87.9,    1.0583, 2,    127.004,  -92.1,    1.0584, 0, 0, 0, 0
"BUSLVMAI10", 0.20785, 1,     127.06,   87.9,    1.0588, 2,    127.073,  -92.1,    1.0589, 0, 0, 0, 0
"BUSLVMAI11", 0.20785, 1,    128.112, -150.8,    1.0676, 2,    128.126,   29.2,    1.0677, 0, 0, 0, 0
"BUSLVMAI12", 0.20785, 1,     128.04, -150.8,     1.067, 2,    128.056,   29.2,    1.0671, 0, 0, 0, 0
"BUSLVMAI13", 0.20785, 1,    128.842,  -31.0,    1.0737, 2,    128.857,  149.0,    1.0738, 0, 0, 0, 0
"BUSLVMAI14", 0.20785, 1,    128.912,  -31.1,    1.0743, 2,    128.928,  148.9,    1.0744, 0, 0, 0, 0
"BUSLVMAI15", 0.20785, 1,    128.898,  -31.0,    1.0742, 2,    128.911,  149.0,    1.0743, 0, 0, 0, 0
"BUSLVMAI16", 0.20785, 1,    127.576,   88.3,    1.0631, 2,    127.594,  -91.7,    1.0633, 0, 0, 0, 0
"BUSLVMAI17", 0.20785, 1,    126.377,   87.8,    1.0531, 2,    126.444,  -92.2,    1.0537, 0, 0, 0, 0
"BUSLVMAI18", 0.20785, 1,    127.491,   88.2,    1.0624, 2,    127.507,  -91.8,    1.0626, 0, 0, 0, 0
"BUSLVMAI19", 0.20785, 1,    127.646,   88.3,    1.0637, 2,    127.659,  -91.7,    1.0638, 0, 0, 0, 0
"BUSLVMAI20", 0.20785, 1,    127.687, -150.9,    1.0641, 2,    127.723,   29.1,    1.0644, 0, 0, 0, 0
"BUSLVMAI21", 0.20785, 1,    127.599,   88.3,    1.0633, 2,    127.615,  -91.7,    1.0635, 0, 0, 0, 0
"BUSLVMAI22", 0.20785, 1,    128.606,  -31.2,    1.0717, 2,    128.717,  148.9,    1.0726, 0, 0, 0, 0
"BUSLVMAI23", 0.20785, 1,    127.537,   88.3,    1.0628, 2,    127.553,  -91.7,    1.0629, 0, 0, 0, 0
"BUSLVMAI24", 0.20785, 1,     127.57,   88.3,    1.0631, 2,    127.586,  -91.7,    1.0632, 0, 0, 0, 0
"BUSLVMAI25", 0.20785, 1,    127.424,   88.2,    1.0619, 2,    127.439,  -91.8,     1.062, 0, 0, 0, 0
"BUSLVMAI26", 0.20785, 1,    128.053, -150.8,    1.0671, 2,    128.069,   29.2,    1.0672, 0, 0, 0, 0
"BUSLVMAI27", 0.20785, 1,    128.146, -150.8,    1.0679, 2,    128.162,   29.2,     1.068, 0, 0, 0, 0
"BUSLVMAI28", 0.20785, 1,    127.491,   88.2,    1.0624, 2,    127.507,  -91.8,    1.0626, 0, 0, 0, 0
"BUSLVMAI29", 0.20785, 1,    127.075,   87.9,     1.059, 2,     127.09,  -92.1,    1.0591, 0, 0, 0, 0
"BUSLVMAI30", 0.20785, 1,    127.967, -150.8,    1.0664, 2,    127.981,   29.2,    1.0665, 0, 0, 0, 0
"BUSLVMAI31", 0.20785, 1,    127.574,   88.3,    1.0631, 2,     127.59,  -91.7,    1.0632, 0, 0, 0, 0
"BUSLVMAI32", 0.20785, 1,    128.692,  -31.1,    1.0724, 2,    128.706,  148.9,    1.0725, 0, 0, 0, 0
"BUSLVMAI33", 0.20785, 1,    127.461,   88.2,    1.0622, 2,    127.474,  -91.8,    1.0623, 0, 0, 0, 0
"BUSLVMAI34", 0.20785, 1,    126.147,   88.0,    1.0512, 2,    126.328,  -92.0,    1.0527, 0, 0, 0, 0
"BUSLVMAI35", 0.20785, 1,    127.504,   88.3,    1.0625, 2,    127.518,  -91.7,    1.0627, 0, 0, 0, 0
"BUSLVMAI36", 0.20785, 1,    127.502,   88.3,    1.0625, 2,    127.517,  -91.7,    1.0626, 0, 0, 0, 0
"BUSLVMAI37", 0.20785, 1,    127.475,   88.3,    1.0623, 2,     127.49,  -91.7,    1.0624, 0, 0, 0, 0
"BUSLVMAI38", 0.20785, 1,    125.241, -151.4,    1.0437, 2,    125.259,   28.6,    1.0438, 0, 0, 0, 0
"BUSLVMAI39", 0.20785, 1,    128.044, -150.8,     1.067, 2,    128.057,   29.2,    1.0671, 0, 0, 0, 0
"BUSLVMAI40", 0.20785, 1,    127.095,   88.1,    1.0591, 2,    127.138,  -91.9,    1.0595, 0, 0, 0, 0
"BUSLVMAI41", 0.20785, 1,     128.62,  -31.1,    1.0718, 2,    128.636,  148.9,     1.072, 0, 0, 0, 0
"BUSLVMAI42", 0.20785, 1,    128.601,  -31.1,    1.0717, 2,    128.617,  148.9,    1.0718, 0, 0, 0, 0
"BUSLVMAI43", 0.20785, 1,    128.627,  -31.1,    1.0719, 2,    128.643,  148.9,     1.072, 0, 0, 0, 0
"BUSLVMAI44", 0.20785, 1,    127.319,   88.3,     1.061, 2,     127.36,  -91.7,    1.0613, 0, 0, 0, 0
"BUSLVMAI45", 0.20785, 1,    127.333,   88.2,    1.0611, 2,    127.347,  -91.8,    1.0612, 0, 0, 0, 0
"BUSLVMAI46", 0.20785, 1,    127.451,   88.3,    1.0621, 2,    127.467,  -91.7,    1.0622, 0, 0, 0, 0
"BUSLVMAI47", 0.20785, 1,    127.507,   88.3,    1.0626, 2,    127.521,  -91.7,    1.0627, 0, 0, 0, 0
"BUSLVMAI48", 0.20785, 1,     127.07,   88.1,    1.0589, 2,    127.133,  -91.9,    1.0594, 0, 0, 0, 0
"BUSLVMAI49", 0.20785, 1,    128.633,  -31.1,    1.0719, 2,    128.649,  148.9,    1.0721, 0, 0, 0, 0
"BUSLVMAI50", 0.20785, 1,    126.357, -151.3,     1.053, 2,    126.502,   28.7,    1.0542, 0, 0, 0, 0
"BUSLVMAI51", 0.20785, 1,    127.895,  -31.3,    1.0658, 2,    127.912,  148.6,    1.0659, 0, 0, 0, 0
"BUSLVMAI52", 0.20785, 1,    127.516,   88.3,    1.0626, 2,    127.529,  -91.7,    1.0627, 0, 0, 0, 0
"BUSLVMAI53", 0.20785, 1,    127.498,   88.3,    1.0625, 2,    127.514,  -91.7,    1.0626, 0, 0, 0, 0
"BUSLVMAI54", 0.20785, 1,    126.873,   88.1,    1.0573, 2,    126.889,  -91.9,    1.0574, 0, 0, 0, 0
"BUSLVMAI55", 0.20785, 1,    128.641,  -31.1,     1.072, 2,    128.657,  148.9,    1.0721, 0, 0, 0, 0
"BUSLVMAI56", 0.20785, 1,    127.438,   88.3,     1.062, 2,    127.451,  -91.7,    1.0621, 0, 0, 0, 0
"BUSLVMAI57", 0.20785, 1,    127.433,   88.3,    1.0619, 2,    127.449,  -91.7,    1.0621, 0, 0, 0, 0
"BUSLVMAI58", 0.20785, 1,    127.514,   88.3,    1.0626, 2,    127.529,  -91.7,    1.0627, 0, 0, 0, 0
"BUSLVMAI59", 0.20785, 1,    128.633,  -31.1,    1.0719, 2,    128.649,  148.9,    1.0721, 0, 0, 0, 0
"BUSLVMAI60", 0.20785, 1,    128.534,  -31.2,    1.0711, 2,    128.547,  148.8,    1.0712, 0, 0, 0, 0
"BUSLVMAI61", 0.20785, 1,    127.692,  -31.5,    1.0641, 2,    127.709,  148.5,    1.0642, 0, 0, 0, 0
"BUSLVMAI62", 0.20785, 1,    127.989, -150.9,    1.0666, 2,    128.004,   29.1,    1.0667, 0, 0, 0, 0
"BUSLVMAI63", 0.20785, 1,     128.47,  -31.1,    1.0706, 2,    128.491,  148.9,    1.0708, 0, 0, 0, 0
"BUSLVMAI64", 0.20785, 1,    128.089, -150.8,    1.0674, 2,    128.102,   29.2,    1.0675, 0, 0, 0, 0
"BUSLVMAI65", 0.20785, 1,    128.617,  -31.1,    1.0718, 2,    128.631,  148.9,    1.0719, 0, 0, 0, 0
"BUSLVMAI66", 0.20785, 1,    127.503,   88.3,    1.0625, 2,    127.517,  -91.7,    1.0626, 0, 0, 0, 0
"BUSLVMAI67", 0.20785, 1,    128.327,  -31.2,    1.0694, 2,    128.343,  148.8,    1.0695, 0, 0, 0, 0
"BUSLVMAI68", 0.20785, 1,    128.159,  -31.3,     1.068, 2,    128.172,  148.7,    1.0681, 0, 0, 0, 0
"BUSLVMAI69", 0.20785, 1,    127.507,   88.3,    1.0626, 2,     127.52,  -91.7,    1.0627, 0, 0, 0, 0
"BUSLVMAI70", 0.20785, 1,    127.126,   88.1,    1.0594, 2,     127.15,  -91.9,    1.0596, 0, 0, 0, 0
"BUSLVMAI71", 0.20785, 1,    128.422,  -31.2,    1.0702, 2,    128.436,  148.8,    1.0703, 0, 0, 0, 0
"BUSLVMAI72", 0.20785, 1,    128.573,  -31.1,    1.0714, 2,    128.587,  148.9,    1.0716, 0, 0, 0, 0
"BUSLVMAI73", 0.20785, 1,    128.565,  -31.1,    1.0714, 2,    128.578,  148.9,    1.0715, 0, 0, 0, 0
"BUSLVMAI74", 0.20785, 1,    128.632,  -31.1,    1.0719, 2,    128.648,  148.9,    1.0721, 0, 0, 0, 0
"BUSLVMAI75", 0.20785, 1,    128.027, -150.8,    1.0669, 2,    128.042,   29.2,     1.067, 0, 0, 0, 0
"BUSLVMAI76", 0.20785, 1,    127.503,   88.3,    1.0625, 2,    127.516,  -91.7,    1.0626, 0, 0, 0, 0
"BUSLVMAI77", 0.20785, 1,    128.111,  -31.3,    1.0676, 2,    128.125,  148.7,    1.0677, 0, 0, 0, 0
"BUSLVMAI78", 0.20785, 1,      128.6,  -31.1,    1.0717, 2,    128.614,  148.9,    1.0718, 0, 0, 0, 0
"BUSLVMAI79", 0.20785, 1,     127.44,   88.3,     1.062, 2,    127.454,  -91.7,    1.0621, 0, 0, 0, 0
"BUSLVMAI80", 0.20785, 1,    126.219,   87.7,    1.0518, 2,    126.259,  -92.3,    1.0522, 0, 0, 0, 0
"BUSLVMAI81", 0.20785, 1,    127.502,   88.3,    1.0625, 2,    127.517,  -91.7,    1.0626, 0, 0, 0, 0
"BUSLVMAI82", 0.20785, 1,    127.315,   88.3,     1.061, 2,    127.331,  -91.8,    1.0611, 0, 0, 0, 0
"BUSLVMAI83", 0.20785, 1,    128.066,  -31.3,    1.0672, 2,    128.108,  148.7,    1.0676, 0, 0, 0, 0
"BUSLVMAI84", 0.20785, 1,     127.31,   88.3,    1.0609, 2,    127.324,  -91.7,     1.061, 0, 0, 0, 0
"BUSLVMAI85", 0.20785, 1,    128.208, -150.7,    1.0684, 2,    128.235,   29.2,    1.0686, 0, 0, 0, 0
"BUSLVMAI86", 0.20785, 1,    128.463,  -31.2,    1.0705, 2,    128.491,  148.8,    1.0708, 0, 0, 0, 0
"BUSLVMAI87", 0.20785, 1,    128.724,  -31.0,    1.0727, 2,    128.755,  149.0,     1.073, 0, 0, 0, 0
"BUSLVMAI88", 0.20785, 1,    127.542,   88.3,    1.0629, 2,    127.555,  -91.7,     1.063, 0, 0, 0, 0
"BUSLVMAI89", 0.20785, 1,    127.503,   88.3,    1.0625, 2,    127.516,  -91.7,    1.0626, 0, 0, 0, 0
"BUSLVMAI90", 0.20785, 1,    127.121,   88.2,    1.0593, 2,    127.137,  -91.8,    1.0595, 0, 0, 0, 0
"BUSLVMAI91", 0.20785, 1,    127.513,   88.3,    1.0626, 2,    127.529,  -91.7,    1.0627, 0, 0, 0, 0
"BUSLVMAI92", 0.20785, 1,    128.334,  -31.2,    1.0695, 2,    128.356,  148.8,    1.0696, 0, 0, 0, 0
"BUSLVMAI93", 0.20785, 1,      127.4,   88.3,    1.0617, 2,    127.416,  -91.7,    1.0618, 0, 0, 0, 0
"BUSLVMAI94", 0.20785, 1,    127.375,   88.3,    1.0615, 2,     127.39,  -91.7,    1.0616, 0, 0, 0, 0
"BUSLVMAI95", 0.20785, 1,    127.433,   88.3,    1.0619, 2,    127.449,  -91.7,    1.0621, 0, 0, 0, 0
"BUSLVMAI96", 0.20785, 1,    127.496,   88.3,    1.0625, 2,     127.51,  -91.7,    1.0626, 0, 0, 0, 0
"BUSLVMAI97", 0.20785, 1,    128.191, -150.8,    1.0683, 2,    128.206,   29.2,    1.0684, 0, 0, 0, 0
"BUSLVMAI98", 0.20785, 1,    128.191, -150.8,    1.0683, 2,    128.206,   29.2,    1.0684, 0, 0, 0, 0
"BUSLVMAI99", 0.20785, 1,    127.517,   88.3,    1.0626, 2,    127.532,  -91.7,    1.0628, 0, 0, 0, 0
"BUSLVMAI100", 0.20785, 1,    127.497,   88.3,    1.0625, 2,    127.511,  -91.7,    1.0626, 0, 0, 0, 0
"BUSLVMAI101", 0.20785, 1,    127.431,   88.3,    1.0619, 2,    127.447,  -91.7,    1.0621, 0, 0, 0, 0
"BUSLVMAI102", 0.20785, 1,    127.501,   88.3,    1.0625, 2,    127.517,  -91.7,    1.0626, 0, 0, 0, 0
"BUSLVMAI103", 0.20785, 1,     127.38,   88.3,    1.0615, 2,    127.395,  -91.7,    1.0616, 0, 0, 0, 0
"BUSLVMAI104", 0.20785, 1,    127.347,   88.3,    1.0612, 2,    127.361,  -91.7,    1.0613, 0, 0, 0, 0
"BUSLVMAI105", 0.20785, 1,    127.278,   88.2,    1.0607, 2,    127.292,  -91.8,    1.0608, 0, 0, 0, 0
"BUSLVMAI106", 0.20785, 1,    128.604,  -31.1,    1.0717, 2,    128.617,  148.9,    1.0718, 0, 0, 0, 0
"BUSLVMAI107", 0.20785, 1,    127.507,   88.3,    1.0626, 2,    127.521,  -91.7,    1.0627, 0, 0, 0, 0
"BUSLVMAI108", 0.20785, 1,    127.445,   88.3,     1.062, 2,    127.459,  -91.7,    1.0622, 0, 0, 0, 0
"BUSLVMAI109", 0.20785, 1,    128.286,  -31.2,     1.069, 2,    128.343,  148.8,    1.0695, 0, 0, 0, 0
"BUSLVMAI110", 0.20785, 1,    128.344,  -31.2,    1.0695, 2,    128.366,  148.8,    1.0697, 0, 0, 0, 0
"BUSLVMAI111", 0.20785, 1,     128.42,  -31.2,    1.0702, 2,    128.436,  148.8,    1.0703, 0, 0, 0, 0
"BUSLVMAI112", 0.20785, 1,    128.534,  -31.1,    1.0711, 2,     128.55,  148.9,    1.0713, 0, 0, 0, 0
"BUSLVMAI113", 0.20785, 1,    128.159, -150.8,     1.068, 2,    128.174,   29.2,    1.0681, 0, 0, 0, 0
"BUSLVMAI114", 0.20785, 1,    127.671,  -31.4,    1.0639, 2,    127.686,  148.6,    1.0641, 0, 0, 0, 0
"BUSLVMAI115", 0.20785, 1,    128.421,  -31.2,    1.0702, 2,    128.434,  148.8,    1.0703, 0, 0, 0, 0
"BUSLVMAI116", 0.20785, 1,    127.403,   88.3,    1.0617, 2,    127.416,  -91.7,    1.0618, 0, 0, 0, 0
"BUSLVMAI117", 0.20785, 1,    128.201,  -31.3,    1.0683, 2,    128.233,  148.7,    1.0686, 0, 0, 0, 0
"BUSLVMAI118", 0.20785, 1,    128.276,  -31.2,     1.069, 2,    128.292,  148.8,    1.0691, 0, 0, 0, 0
"BUSLVMAI119", 0.20785, 1,     127.07,   88.1,    1.0589, 2,    127.083,  -91.9,     1.059, 0, 0, 0, 0
"BUSLVMAI120", 0.20785, 1,    128.419,  -31.2,    1.0702, 2,    128.434,  148.8,    1.0703, 0, 0, 0, 0
"BUSLVMAI121", 0.20785, 1,    128.217, -150.8,    1.0685, 2,    128.233,   29.2,    1.0686, 0, 0, 0, 0
"BUSLVMAI122", 0.20785, 1,    127.388,   88.3,    1.0616, 2,    127.404,  -91.7,    1.0617, 0, 0, 0, 0
"BUSLVMAI123", 0.20785, 1,    128.217, -150.8,    1.0685, 2,    128.232,   29.2,    1.0686, 0, 0, 0, 0
"BUSLVMAI124", 0.20785, 1,    126.933,   88.1,    1.0578, 2,    126.972,  -91.9,    1.0581, 0, 0, 0, 0
"BUSLVMAI125", 0.20785, 1,    126.961,   88.2,     1.058, 2,     126.98,  -91.8,    1.0582, 0, 0, 0, 0
"BUSLVMAI126", 0.20785, 1,    128.223, -150.8,    1.0685, 2,    128.237,   29.2,    1.0686, 0, 0, 0, 0
"BUSLVMAI127", 0.20785, 1,    127.393,   88.3,    1.0616, 2,    127.407,  -91.7,    1.0617, 0, 0, 0, 0
"BUSLVMAI128", 0.20785, 1,    127.775, -150.9,    1.0648, 2,    127.796,   29.1,     1.065, 0, 0, 0, 0
"BUSLVMAI129", 0.20785, 1,     128.42,  -31.2,    1.0702, 2,    128.433,  148.8,    1.0703, 0, 0, 0, 0
"BUSLVMAI130", 0.20785, 1,    128.527,  -31.1,    1.0711, 2,    128.543,  148.9,    1.0712, 0, 0, 0, 0
"BUSLVMAI131", 0.20785, 1,    127.389,  -31.5,    1.0616, 2,     127.41,  148.5,    1.0618, 0, 0, 0, 0
"BUSLVMAI132", 0.20785, 1,    128.417,  -31.2,    1.0701, 2,     128.43,  148.8,    1.0702, 0, 0, 0, 0
"BUSLVMAI133", 0.20785, 1,     127.41,   88.3,    1.0618, 2,    127.428,  -91.7,    1.0619, 0, 0, 0, 0
"BUSLVMAI134", 0.20785, 1,    127.175,   88.2,    1.0598, 2,    127.193,  -91.8,    1.0599, 0, 0, 0, 0
"BUSLVMAI135", 0.20785, 1,    127.301,   88.2,    1.0608, 2,    127.317,  -91.8,     1.061, 0, 0, 0, 0
"BUSLVMAI136", 0.20785, 1,     128.03,  -31.4,    1.0669, 2,    128.086,  148.7,    1.0674, 0, 0, 0, 0
"BUSLVMAI137", 0.20785, 1,    128.149, -150.8,    1.0679, 2,    128.163,   29.2,     1.068, 0, 0, 0, 0
"BUSLVMAI138", 0.20785, 1,    128.033, -150.9,    1.0669, 2,    128.056,   29.1,    1.0671, 0, 0, 0, 0
"BUSLVMAI139", 0.20785, 1,    127.726, -151.0,    1.0644, 2,    127.743,   29.0,    1.0645, 0, 0, 0, 0
"BUSLVMAI140", 0.20785, 1,    128.163,  -31.2,     1.068, 2,    128.179,  148.8,    1.0682, 0, 0, 0, 0
"BUSLVMAI141", 0.20785, 1,    128.223, -150.8,    1.0685, 2,    128.238,   29.2,    1.0686, 0, 0, 0, 0
"BUSLVMAI142", 0.20785, 1,    127.911, -150.9,    1.0659, 2,    127.925,   29.1,     1.066, 0, 0, 0, 0
"BUSLVMAI143", 0.20785, 1,    128.054, -150.8,    1.0671, 2,    128.069,   29.1,    1.0672, 0, 0, 0, 0
"BUSLVMAI144", 0.20785, 1,     127.39,   88.3,    1.0616, 2,    127.406,  -91.7,    1.0617, 0, 0, 0, 0
"BUSLVMAI145", 0.20785, 1,    128.511,  -31.1,    1.0709, 2,    128.527,  148.9,    1.0711, 0, 0, 0, 0
"BUSLVMAI146", 0.20785, 1,    128.209, -150.8,    1.0684, 2,    128.223,   29.2,    1.0685, 0, 0, 0, 0
"BUSLVMAI147", 0.20785, 1,    128.325,  -31.1,    1.0694, 2,    128.343,  148.9,    1.0695, 0, 0, 0, 0
"BUSLVMAI148", 0.20785, 1,    127.343,   88.3,    1.0612, 2,    127.358,  -91.7,    1.0613, 0, 0, 0, 0
"BUSLVMAI149", 0.20785, 1,     127.98, -150.9,    1.0665, 2,    127.993,   29.1,    1.0666, 0, 0, 0, 0
"BUSLVMAI150", 0.20785, 1,    127.958,  -31.4,    1.0663, 2,    127.983,  148.6,    1.0665, 0, 0, 0, 0
"BUSLVMAI151", 0.20785, 1,    128.025, -150.7,    1.0669, 2,    128.038,   29.2,     1.067, 0, 0, 0, 0
"BUSLVMAI152", 0.20785, 1,    128.409,  -31.2,    1.0701, 2,    128.424,  148.8,    1.0702, 0, 0, 0, 0
"BUSLVMAI153", 0.20785, 1,    126.715,   88.1,     1.056, 2,    126.731,  -91.9,    1.0561, 0, 0, 0, 0
"BUSLVMAI154", 0.20785, 1,    127.403,   88.3,    1.0617, 2,    127.419,  -91.7,    1.0618, 0, 0, 0, 0
"BUSLVMAI155", 0.20785, 1,    128.234,  -31.2,    1.0686, 2,    128.248,  148.7,    1.0687, 0, 0, 0, 0
"BUSLVMAI156", 0.20785, 1,    128.427,  -31.2,    1.0702, 2,     128.44,  148.8,    1.0703, 0, 0, 0, 0
"BUSLVMAI157", 0.20785, 1,    127.743,  -31.4,    1.0645, 2,    127.759,  148.6,    1.0647, 0, 0, 0, 0
"BUSLVMAI158", 0.20785, 1,    128.174, -150.8,    1.0681, 2,    128.187,   29.2,    1.0682, 0, 0, 0, 0
"BUSLVMAI159", 0.20785, 1,    128.172, -150.8,    1.0681, 2,    128.186,   29.2,    1.0682, 0, 0, 0, 0
"BUSLVMAI160", 0.20785, 1,    128.439,  -31.1,    1.0703, 2,    128.457,  148.9,    1.0705, 0, 0, 0, 0
"BUSLVMAI161", 0.20785, 1,    128.275,  -31.2,     1.069, 2,    128.301,  148.8,    1.0692, 0, 0, 0, 0
"BUSLVMAI162", 0.20785, 1,    128.279,  -31.2,     1.069, 2,    128.295,  148.8,    1.0691, 0, 0, 0, 0
"BUSLVMAI163", 0.20785, 1,    128.409,  -31.2,    1.0701, 2,    128.424,  148.8,    1.0702, 0, 0, 0, 0
"BUSLVMAI164", 0.20785, 1,    128.584,  -31.1,    1.0715, 2,    128.598,  148.9,    1.0716, 0, 0, 0, 0
"BUSLVMAI165", 0.20785, 1,    127.897,  -31.3,    1.0658, 2,    127.938,  148.7,    1.0661, 0, 0, 0, 0
"BUSLVMAI166", 0.20785, 1,    128.056,  -31.4,    1.0671, 2,    128.092,  148.6,    1.0674, 0, 0, 0, 0
"BUSLVMAI167", 0.20785, 1,    127.291,   88.3,    1.0608, 2,    127.322,  -91.7,     1.061, 0, 0, 0, 0
"BUSLVMAI168", 0.20785, 1,    127.337,   88.3,    1.0611, 2,    127.351,  -91.7,    1.0613, 0, 0, 0, 0
"BUSLVMAI169", 0.20785, 1,    126.493,  -31.6,    1.0541, 2,    126.511,  148.4,    1.0543, 0, 0, 0, 0
"BUSLVMAI170", 0.20785, 1,    128.415,  -31.2,    1.0701, 2,    128.429,  148.8,    1.0702, 0, 0, 0, 0
"BUSLVMAI171", 0.20785, 1,    128.013,  -31.3,    1.0668, 2,    128.085,  148.7,    1.0674, 0, 0, 0, 0
"BUSLVMAI172", 0.20785, 1,    127.238,   88.3,    1.0603, 2,    127.252,  -91.7,    1.0604, 0, 0, 0, 0
"BUSLVMAI173", 0.20785, 1,    127.387,   88.3,    1.0616, 2,    127.403,  -91.7,    1.0617, 0, 0, 0, 0
"BUSLVMAI174", 0.20785, 1,    128.286,  -31.2,     1.069, 2,     128.31,  148.8,    1.0692, 0, 0, 0, 0
"BUSLVMAI175", 0.20785, 1,    127.826,  -31.4,    1.0652, 2,     127.84,  148.6,    1.0653, 0, 0, 0, 0
"BUSLVMAI176", 0.20785, 1,    127.267,   88.3,    1.0606, 2,     127.28,  -91.7,    1.0607, 0, 0, 0, 0
"BUSLVMAI177", 0.20785, 1,    127.403,   88.3,    1.0617, 2,    127.416,  -91.7,    1.0618, 0, 0, 0, 0
"BUSLVMAI178", 0.20785, 1,    128.155, -150.8,     1.068, 2,    128.168,   29.2,    1.0681, 0, 0, 0, 0
"BUSLVMAI179", 0.20785, 1,    128.036, -150.9,     1.067, 2,    128.049,   29.1,    1.0671, 0, 0, 0, 0
"BUSLVMAI180", 0.20785, 1,    128.427,  -31.2,    1.0702, 2,     128.44,  148.8,    1.0703, 0, 0, 0, 0
"BUSLVMAI181", 0.20785, 1,    128.413,  -31.2,    1.0701, 2,    128.427,  148.8,    1.0702, 0, 0, 0, 0
"BUSLVMAI182", 0.20785, 1,    127.958,  -31.3,    1.0663, 2,    128.109,  148.7,    1.0676, 0, 0, 0, 0
"BUSLVMAI183", 0.20785, 1,    127.219,   88.2,    1.0602, 2,    127.234,  -91.8,    1.0603, 0, 0, 0, 0
"BUSLVMAI184", 0.20785, 1,    128.564,  -31.1,    1.0714, 2,    128.577,  148.9,    1.0715, 0, 0, 0, 0
"BUSLVMAI185", 0.20785, 1,    127.941, -150.8,    1.0662, 2,    127.954,   29.1,    1.0663, 0, 0, 0, 0
"BUSLVMAI186", 0.20785, 1,    127.407,   88.3,    1.0617, 2,    127.423,  -91.7,    1.0619, 0, 0, 0, 0
"BUSLVMAI187", 0.20785, 1,    127.375,   88.3,    1.0615, 2,    127.388,  -91.7,    1.0616, 0, 0, 0, 0
"BUSLVMAI188", 0.20785, 1,    128.177, -150.8,    1.0681, 2,    128.193,   29.2,    1.0683, 0, 0, 0, 0
"BUSLVMAI189", 0.20785, 1,    128.422,  -31.2,    1.0702, 2,    128.438,  148.8,    1.0703, 0, 0, 0, 0
"BUSLVMAI190", 0.20785, 1,    128.173, -150.8,    1.0681, 2,    128.189,   29.2,    1.0682, 0, 0, 0, 0
"BUSLVMAI191", 0.20785, 1,    127.403,   88.3,    1.0617, 2,    127.419,  -91.7,    1.0618, 0, 0, 0, 0
"BUSLVMAI192", 0.20785, 1,    128.411,  -31.2,    1.0701, 2,    128.427,  148.8,    1.0702, 0, 0, 0, 0
"BUSLVMAI193", 0.20785, 1,    128.417,  -31.2,    1.0701, 2,    128.433,  148.8,    1.0703, 0, 0, 0, 0
"BUSLVMAI194", 0.20785, 1,      127.3,   88.3,    1.0608, 2,    127.316,  -91.7,     1.061, 0, 0, 0, 0
"BUSLVMAI195", 0.20785, 1,    127.405,   88.3,    1.0617, 2,    127.421,  -91.7,    1.0618, 0, 0, 0, 0
"BUSLVMAI196", 0.20785, 1,    128.156, -150.8,     1.068, 2,    128.172,   29.2,    1.0681, 0, 0, 0, 0
"BUSLVMAI197", 0.20785, 1,    127.948, -150.9,    1.0662, 2,    127.962,   29.1,    1.0664, 0, 0, 0, 0
"BUSLVMAI198", 0.20785, 1,    128.157, -150.8,     1.068, 2,    128.173,   29.2,    1.0681, 0, 0, 0, 0
"BUSLVMAI199", 0.20785, 1,    128.158, -150.8,     1.068, 2,    128.173,   29.2,    1.0681, 0, 0, 0, 0
"BUSLVMAI200", 0.20785, 1,     128.41,  -31.2,    1.0701, 2,    128.426,  148.8,    1.0702, 0, 0, 0, 0
...
